removing/!
pragma
acc
removing
openacc
h
OpenACC
g
mpi
BufNewFile
BufRead
vim
tabstop
expandtab
softtabstop
statusline
spellcheck
lightslategray
rbunch
f90
svn
petest
tst90
ar
ftn
b
c
d
coatomic
inline
_CRI
CRI
inline_always
cpp
Checkin
tiggered
misthrowing
compiling
bug
Calc
one
calc
config
cfg
pe03
gz
NR
ptmp
cp
cd
pfg
xzvf
mkdir
nrmake
nr3dist
files
pcf
wqa
s
unalias
